*HEADING
Vinkulum linear statics, SI: m N Pa
*NODE,NSET=ALLN
1,0,0,0
2,1,0,0
3,0,0.20000000000000001,0
4,1,0.20000000000000001,0
5,0,0,0.29999999999999999
6,1,0,0.29999999999999999
7,0,0.20000000000000001,0.29999999999999999
8,1,0.20000000000000001,0.29999999999999999
9,0.5,0,0
10,1,0.10000000000000001,0
11,0.5,0.10000000000000001,0
12,0.5,0.10000000000000001,0.14999999999999999
13,1,0.10000000000000001,0.14999999999999999
14,1,0.20000000000000001,0.14999999999999999
15,0.5,0.20000000000000001,0
16,0,0.10000000000000001,0
17,0.5,0.20000000000000001,0.14999999999999999
18,0,0.20000000000000001,0.14999999999999999
19,0,0.10000000000000001,0.14999999999999999
20,0.5,0.20000000000000001,0.29999999999999999
** ... 7 like lines cut
*ELEMENT,TYPE=C3D10,ELSET=ALLE
1,1,2,4,8,9,10,11,12,13,14
2,1,4,3,8,11,15,16,12,14,17
3,1,3,7,8,16,18,19,12,17,20
4,1,7,5,8,19,21,22,12,20,23
5,1,5,6,8,22,24,25,12,23,26
6,1,6,2,8,25,27,9,12,26,13
*MATERIAL,NAME=ISOTROPIC
*ELASTIC
210000000000,0.29999999999999999
*SOLID SECTION,ELSET=ALLE,MATERIAL=ISOTROPIC
*BOUNDARY
1,1,1,0
3,1,1,0
5,1,1,0
7,1,1,0
16,1,1,0
18,1,1,0
19,1,1,0
21,1,1,0
22,1,1,0
1,2,2,0
1,3,3,0
3,3,3,0
*STEP
*STATIC
*CLOAD
1,1,-300
2,1,300.00000000000006
3,1,100
4,1,-100
5,1,-100
6,1,100.00000000000023
7,1,300
8,1,-299.99999999999989
10,1,-200
14,1,-600
16,1,200
18,1,600
21,1,-200
22,1,-600
26,1,200
27,1,600
*NODE PRINT,NSET=ALLN
U,RF
*EL PRINT,ELSET=ALLE
S,ENER
*END STEP
